@<TRIPOS>MOLECULE
UNK
  150   149     1     0     0
SMALL
No Charge or Current Charge


@<TRIPOS>ATOM
      1 C1           1.5400     0.0000     0.0000 c2         1 UNK       0.000000
      2 H1           1.5400    -1.0300     0.3550 ha         1 UNK       0.000000
      3 H2           1.5400     1.0300    -0.3550 ha         1 UNK       0.000000
      4 C2           3.0800     0.0000     0.0000 c3         1 UNK       0.000000
      5 H3           3.0800     1.0300     0.3550 h1         1 UNK       0.000000
      6 O1           3.0800    -1.3510    -0.4660 oh         1 UNK       0.000000
      7 H4           3.0800    -1.0380     0.4410 ho         1 UNK       0.000000
      8 C3           4.6200     0.0000     0.0000 c3         1 UNK       0.000000
      9 H5           4.6200    -1.0300     0.3550 hc         1 UNK       0.000000
     10 H6           4.6200     1.0300    -0.3550 hc         1 UNK       0.000000
     11 C4           6.1600     0.0000     0.0000 c3         1 UNK       0.000000
     12 H7           6.1600     1.0300     0.3550 h1         1 UNK       0.000000
     13 O2           6.1600    -1.3510    -0.4660 oh         1 UNK       0.000000
     14 H8           6.1600    -1.0380     0.4410 ho         1 UNK       0.000000
     15 C5           7.7000     0.0000     0.0000 c3         1 UNK       0.000000
     16 H9           7.7000    -1.0300     0.3550 hc         1 UNK       0.000000
     17 H10          7.7000     1.0300    -0.3550 hc         1 UNK       0.000000
     18 C6           9.2400     0.0000     0.0000 c3         1 UNK       0.000000
     19 H11          9.2400     1.0300     0.3550 h1         1 UNK       0.000000
     20 O3           9.2400    -1.3510    -0.4660 oh         1 UNK       0.000000
     21 H12          9.2400    -1.0380     0.4410 ho         1 UNK       0.000000
     22 C7          10.7800     0.0000     0.0000 c3         1 UNK       0.000000
     23 H13         10.7800    -1.0300     0.3550 hc         1 UNK       0.000000
     24 H14         10.7800     1.0300    -0.3550 hc         1 UNK       0.000000
     25 C8          12.3200     0.0000     0.0000 c3         1 UNK       0.000000
     26 H15         12.3200     1.0300     0.3550 h1         1 UNK       0.000000
     27 O4          12.3200    -1.3510    -0.4660 oh         1 UNK       0.000000
     28 H16         12.3200    -1.0380     0.4410 ho         1 UNK       0.000000
     29 C9          13.8600     0.0000     0.0000 c3         1 UNK       0.000000
     30 H17         13.8600    -1.0300     0.3550 hc         1 UNK       0.000000
     31 H18         13.8600     1.0300    -0.3550 hc         1 UNK       0.000000
     32 C10         15.4000     0.0000     0.0000 c3         1 UNK       0.000000
     33 H19         15.4000     1.0300     0.3550 h1         1 UNK       0.000000
     34 O5          15.4000    -1.3510    -0.4660 oh         1 UNK       0.000000
     35 H20         15.4000    -1.0380     0.4410 ho         1 UNK       0.000000
     36 C11         16.9400     0.0000     0.0000 c3         1 UNK       0.000000
     37 H21         16.9400    -1.0300     0.3550 hc         1 UNK       0.000000
     38 H22         16.9400     1.0300    -0.3550 hc         1 UNK       0.000000
     39 C12         18.4800     0.0000     0.0000 c3         1 UNK       0.000000
     40 H23         18.4800     1.0300     0.3550 h1         1 UNK       0.000000
     41 O6          18.4800    -1.3510    -0.4660 oh         1 UNK       0.000000
     42 H24         18.4800    -1.0380     0.4410 ho         1 UNK       0.000000
     43 C13         20.0200     0.0000     0.0000 c3         1 UNK       0.000000
     44 H25         20.0200    -1.0300     0.3550 hc         1 UNK       0.000000
     45 H26         20.0200     1.0300    -0.3550 hc         1 UNK       0.000000
     46 C14         21.5600     0.0000     0.0000 c3         1 UNK       0.000000
     47 H27         21.5600     1.0300     0.3550 h1         1 UNK       0.000000
     48 O7          21.5600    -1.3510    -0.4660 oh         1 UNK       0.000000
     49 H28         21.5600    -1.0380     0.4410 ho         1 UNK       0.000000
     50 C15         23.1000     0.0000     0.0000 c3         1 UNK       0.000000
     51 H29         23.1000    -1.0300     0.3550 hc         1 UNK       0.000000
     52 H30         23.1000     1.0300    -0.3550 hc         1 UNK       0.000000
     53 C16         24.6400     0.0000     0.0000 c3         1 UNK       0.000000
     54 H31         24.6400     1.0300     0.3550 h1         1 UNK       0.000000
     55 O8          24.6400    -1.3510    -0.4660 oh         1 UNK       0.000000
     56 H32         24.6400    -1.0380     0.4410 ho         1 UNK       0.000000
     57 C17         26.1800     0.0000     0.0000 c3         1 UNK       0.000000
     58 H33         26.1800    -1.0300     0.3550 hc         1 UNK       0.000000
     59 H34         26.1800     1.0300    -0.3550 hc         1 UNK       0.000000
     60 C18         27.7200     0.0000     0.0000 c3         1 UNK       0.000000
     61 H35         27.7200     1.0300     0.3550 h1         1 UNK       0.000000
     62 O9          27.7200    -1.3510    -0.4660 oh         1 UNK       0.000000
     63 H36         27.7200    -1.0380     0.4410 ho         1 UNK       0.000000
     64 C19         29.2600     0.0000     0.0000 c3         1 UNK       0.000000
     65 H37         29.2600    -1.0300     0.3550 hc         1 UNK       0.000000
     66 H38         29.2600     1.0300    -0.3550 hc         1 UNK       0.000000
     67 C20         30.8000     0.0000     0.0000 c3         1 UNK       0.000000
     68 H39         30.8000     1.0300     0.3550 h1         1 UNK       0.000000
     69 O10         30.8000    -1.3510    -0.4660 oh         1 UNK       0.000000
     70 H40         30.8000    -1.0380     0.4410 ho         1 UNK       0.000000
     71 C21         32.3400     0.0000     0.0000 c3         1 UNK       0.000000
     72 H41         32.3400    -1.0300     0.3550 hc         1 UNK       0.000000
     73 H42         32.3400     1.0300    -0.3550 hc         1 UNK       0.000000
     74 C22         33.8800     0.0000     0.0000 c3         1 UNK       0.000000
     75 H43         33.8800     1.0300     0.3550 h1         1 UNK       0.000000
     76 O11         33.8800    -1.3510    -0.4660 oh         1 UNK       0.000000
     77 H44         33.8800    -1.0380     0.4410 ho         1 UNK       0.000000
     78 C23         35.4200     0.0000     0.0000 c3         1 UNK       0.000000
     79 H45         35.4200    -1.0300     0.3550 hc         1 UNK       0.000000
     80 H46         35.4200     1.0300    -0.3550 hc         1 UNK       0.000000
     81 C24         36.9600     0.0000     0.0000 c3         1 UNK       0.000000
     82 H47         36.9600     1.0300     0.3550 h1         1 UNK       0.000000
     83 O12         36.9600    -1.3510    -0.4660 oh         1 UNK       0.000000
     84 H48         36.9600    -1.0380     0.4410 ho         1 UNK       0.000000
     85 C25         38.5000     0.0000     0.0000 c3         1 UNK       0.000000
     86 H49         38.5000    -1.0300     0.3550 hc         1 UNK       0.000000
     87 H50         38.5000     1.0300    -0.3550 hc         1 UNK       0.000000
     88 C26         40.0400     0.0000     0.0000 c3         1 UNK       0.000000
     89 H51         40.0400     1.0300     0.3550 h1         1 UNK       0.000000
     90 O13         40.0400    -1.3510    -0.4660 oh         1 UNK       0.000000
     91 H52         40.0400    -1.0380     0.4410 ho         1 UNK       0.000000
     92 C27         41.5800     0.0000     0.0000 c3         1 UNK       0.000000
     93 H53         41.5800    -1.0300     0.3550 hc         1 UNK       0.000000
     94 H54         41.5800     1.0300    -0.3550 hc         1 UNK       0.000000
     95 C28         43.1200     0.0000     0.0000 c3         1 UNK       0.000000
     96 H55         43.1200     1.0300     0.3550 h1         1 UNK       0.000000
     97 O14         43.1200    -1.3510    -0.4660 oh         1 UNK       0.000000
     98 H56         43.1200    -1.0380     0.4410 ho         1 UNK       0.000000
     99 C29         44.6600     0.0000     0.0000 c3         1 UNK       0.000000
    100 H57         44.6600    -1.0300     0.3550 hc         1 UNK       0.000000
    101 H58         44.6600     1.0300    -0.3550 hc         1 UNK       0.000000
    102 C30         46.2000     0.0000     0.0000 c3         1 UNK       0.000000
    103 H59         46.2000     1.0300     0.3550 h1         1 UNK       0.000000
    104 O15         46.2000    -1.3510    -0.4660 oh         1 UNK       0.000000
    105 H60         46.2000    -1.0380     0.4410 ho         1 UNK       0.000000
    106 C31         47.7400     0.0000     0.0000 c3         1 UNK       0.000000
    107 H61         47.7400    -1.0300     0.3550 hc         1 UNK       0.000000
    108 H62         47.7400     1.0300    -0.3550 hc         1 UNK       0.000000
    109 C32         49.2800     0.0000     0.0000 c3         1 UNK       0.000000
    110 H63         49.2800     1.0300     0.3550 h1         1 UNK       0.000000
    111 O16         49.2800    -1.3510    -0.4660 oh         1 UNK       0.000000
    112 H64         49.2800    -1.0380     0.4410 ho         1 UNK       0.000000
    113 C33         50.8200     0.0000     0.0000 c3         1 UNK       0.000000
    114 H65         50.8200    -1.0300     0.3550 hc         1 UNK       0.000000
    115 H66         50.8200     1.0300    -0.3550 hc         1 UNK       0.000000
    116 C34         52.3600     0.0000     0.0000 c3         1 UNK       0.000000
    117 H67         52.3600     1.0300     0.3550 h1         1 UNK       0.000000
    118 O17         52.3600    -1.3510    -0.4660 oh         1 UNK       0.000000
    119 H68         52.3600    -1.0380     0.4410 ho         1 UNK       0.000000
    120 C35         53.9000     0.0000     0.0000 c3         1 UNK       0.000000
    121 H69         53.9000    -1.0300     0.3550 hc         1 UNK       0.000000
    122 H70         53.9000     1.0300    -0.3550 hc         1 UNK       0.000000
    123 C36         55.4400     0.0000     0.0000 c3         1 UNK       0.000000
    124 H71         55.4400     1.0300     0.3550 h1         1 UNK       0.000000
    125 O18         55.4400    -1.3510    -0.4660 oh         1 UNK       0.000000
    126 H72         55.4400    -1.0380     0.4410 ho         1 UNK       0.000000
    127 C37         56.9800     0.0000     0.0000 c3         1 UNK       0.000000
    128 H73         56.9800    -1.0300     0.3550 hc         1 UNK       0.000000
    129 H74         56.9800     1.0300    -0.3550 hc         1 UNK       0.000000
    130 C38         58.5200     0.0000     0.0000 c3         1 UNK       0.000000
    131 H75         58.5200     1.0300     0.3550 h1         1 UNK       0.000000
    132 O19         58.5200    -1.3510    -0.4660 oh         1 UNK       0.000000
    133 H76         58.5200    -1.0380     0.4410 ho         1 UNK       0.000000
    134 C39         60.0600     0.0000     0.0000 c3         1 UNK       0.000000
    135 H77         60.0600    -1.0300     0.3550 hc         1 UNK       0.000000
    136 H78         60.0600     1.0300    -0.3550 hc         1 UNK       0.000000
    137 C40         61.6000     0.0000     0.0000 c3         1 UNK       0.000000
    138 H79         61.6000     1.0300     0.3550 h1         1 UNK       0.000000
    139 O20         61.6000    -1.3510    -0.4660 oh         1 UNK       0.000000
    140 H80         61.6000    -1.0380     0.4410 ho         1 UNK       0.000000
    141 C41         63.1400     0.0000     0.0000 c3         1 UNK       0.000000
    142 H81         63.1400    -1.0300     0.3550 hc         1 UNK       0.000000
    143 H82         63.1400     1.0300    -0.3550 hc         1 UNK       0.000000
    144 C42         64.6800     0.0000     0.0000 c3         1 UNK       0.000000
    145 H83         64.6800     1.0300     0.3550 h1         1 UNK       0.000000
    146 O21         64.6800    -1.3510    -0.4660 oh         1 UNK       0.000000
    147 H84         64.6800    -1.0380     0.4410 ho         1 UNK       0.000000
    148 C43         66.2200     0.0000     0.0000 c2         1 UNK       0.000000
    149 H85         66.2200    -1.0300     0.3550 ha         1 UNK       0.000000
    150 H86         66.2200     1.0300    -0.3550 ha         1 UNK       0.000000
@<TRIPOS>BOND
     1     1     2 1   
     2     1     3 1   
     3     1     4 1   
     4     4     5 1   
     5     4     6 1   
     6     4     8 1   
     7     6     7 1   
     8     8     9 1   
     9     8    10 1   
    10     8    11 1   
    11    11    12 1   
    12    11    13 1   
    13    11    15 1   
    14    13    14 1   
    15    15    16 1   
    16    15    17 1   
    17    15    18 1   
    18    18    19 1   
    19    18    20 1   
    20    18    22 1   
    21    20    21 1   
    22    22    23 1   
    23    22    24 1   
    24    22    25 1   
    25    25    26 1   
    26    25    27 1   
    27    25    29 1   
    28    27    28 1   
    29    29    30 1   
    30    29    31 1   
    31    29    32 1   
    32    32    33 1   
    33    32    34 1   
    34    32    36 1   
    35    34    35 1   
    36    36    37 1   
    37    36    38 1   
    38    36    39 1   
    39    39    40 1   
    40    39    41 1   
    41    39    43 1   
    42    41    42 1   
    43    43    44 1   
    44    43    45 1   
    45    43    46 1   
    46    46    47 1   
    47    46    48 1   
    48    46    50 1   
    49    48    49 1   
    50    50    51 1   
    51    50    52 1   
    52    50    53 1   
    53    53    54 1   
    54    53    55 1   
    55    53    57 1   
    56    55    56 1   
    57    57    58 1   
    58    57    59 1   
    59    57    60 1   
    60    60    61 1   
    61    60    62 1   
    62    60    64 1   
    63    62    63 1   
    64    64    65 1   
    65    64    66 1   
    66    64    67 1   
    67    67    68 1   
    68    67    69 1   
    69    67    71 1   
    70    69    70 1   
    71    71    72 1   
    72    71    73 1   
    73    71    74 1   
    74    74    75 1   
    75    74    76 1   
    76    74    78 1   
    77    76    77 1   
    78    78    79 1   
    79    78    80 1   
    80    78    81 1   
    81    81    82 1   
    82    81    83 1   
    83    81    85 1   
    84    83    84 1   
    85    85    86 1   
    86    85    87 1   
    87    85    88 1   
    88    88    89 1   
    89    88    90 1   
    90    88    92 1   
    91    90    91 1   
    92    92    93 1   
    93    92    94 1   
    94    92    95 1   
    95    95    96 1   
    96    95    97 1   
    97    95    99 1   
    98    97    98 1   
    99    99   100 1   
   100    99   101 1   
   101    99   102 1   
   102   102   103 1   
   103   102   104 1   
   104   102   106 1   
   105   104   105 1   
   106   106   107 1   
   107   106   108 1   
   108   106   109 1   
   109   109   110 1   
   110   109   111 1   
   111   109   113 1   
   112   111   112 1   
   113   113   114 1   
   114   113   115 1   
   115   113   116 1   
   116   116   117 1   
   117   116   118 1   
   118   116   120 1   
   119   118   119 1   
   120   120   121 1   
   121   120   122 1   
   122   120   123 1   
   123   123   124 1   
   124   123   125 1   
   125   123   127 1   
   126   125   126 1   
   127   127   128 1   
   128   127   129 1   
   129   127   130 1   
   130   130   131 1   
   131   130   132 1   
   132   130   134 1   
   133   132   133 1   
   134   134   135 1   
   135   134   136 1   
   136   134   137 1   
   137   137   138 1   
   138   137   139 1   
   139   137   141 1   
   140   139   140 1   
   141   141   142 1   
   142   141   143 1   
   143   141   144 1   
   144   144   145 1   
   145   144   146 1   
   146   144   148 1   
   147   146   147 1   
   148   148   149 1   
   149   148   150 1   
@<TRIPOS>SUBSTRUCTURE
     1 UNK         1 TEMP              0 ****  ****    0 ROOT
