@<TRIPOS>MOLECULE
UNK
   60    59     1     0     0
SMALL
bcc


@<TRIPOS>ATOM
      1 C1           1.5400     0.0000     0.0000 c3         1 UNK      -0.118900
      2 H1           1.3980    -1.0870     0.1010 hc         1 UNK       0.064450
      3 H2           1.5510     0.3250    -1.0560 hc         1 UNK       0.064450
      4 C2           3.0800     0.0000     0.0000 c3         1 UNK       0.144100
      5 H3           3.0020     0.2870     1.0710 h1         1 UNK       0.030700
      6 O1           3.1940    -1.5190    -0.1270 oh         1 UNK      -0.610800
      7 H4           3.2520    -1.8810     0.7720 ho         1 UNK       0.401500
      8 C3           4.6200     0.0000     0.0000 c3         1 UNK      -0.073900
      9 H5           4.6200    -0.3580     1.0610 hc         1 UNK       0.059200
     10 H6           4.6150     1.1060    -0.0670 hc         1 UNK       0.059200
     11 C4           6.1600     0.0000     0.0000 c3         1 UNK       0.151600
     12 H7           6.1640     0.3780     1.0540 h1         1 UNK       0.051700
     13 O2           6.1500    -1.4900    -0.1100 oh         1 UNK      -0.617300
     14 H8           6.2080    -1.8730     0.7760 ho         1 UNK       0.420000
     15 C5           7.7000     0.0000     0.0000 c3         1 UNK      -0.131900
     16 H9           7.7010    -0.4140     1.0400 hc         1 UNK       0.060200
     17 H10          7.7000     1.1070    -0.0410 hc         1 UNK       0.060200
     18 C6           9.2400     0.0000     0.0000 c3         1 UNK       0.142100
     19 H11          9.2400     0.3770     1.0550 h1         1 UNK       0.056700
     20 O3           9.2350    -1.4940    -0.0990 oh         1 UNK      -0.621800
     21 H12          9.2880    -1.8690     0.8010 ho         1 UNK       0.422500
     22 C7          10.7800     0.0000     0.0000 c3         1 UNK      -0.133900
     23 H13         10.7810    -0.4180     1.0380 hc         1 UNK       0.062200
     24 H14         10.7800     1.1070    -0.0360 hc         1 UNK       0.062200
     25 C8          12.3200     0.0000     0.0000 c3         1 UNK       0.149100
     26 H15         12.3200     0.3670     1.0590 h1         1 UNK       0.036700
     27 O4          12.3200    -1.4910    -0.1340 oh         1 UNK      -0.625800
     28 H16         12.3200    -1.8850     0.7510 ho         1 UNK       0.426000
     29 C9          13.8600     0.0000     0.0000 c3         1 UNK      -0.133900
     30 H17         13.8590    -0.4180     1.0380 hc         1 UNK       0.062200
     31 H18         13.8600     1.1070    -0.0360 hc         1 UNK       0.062200
     32 C10         15.4000     0.0000     0.0000 c3         1 UNK       0.142100
     33 H19         15.4000     0.3770     1.0550 h1         1 UNK       0.056700
     34 O5          15.4050    -1.4940    -0.0990 oh         1 UNK      -0.621800
     35 H20         15.3520    -1.8690     0.8010 ho         1 UNK       0.422500
     36 C11         16.9400     0.0000     0.0000 c3         1 UNK      -0.131900
     37 H21         16.9390    -0.4140     1.0400 hc         1 UNK       0.060200
     38 H22         16.9400     1.1070    -0.0410 hc         1 UNK       0.060200
     39 C12         18.4800     0.0000     0.0000 c3         1 UNK       0.151600
     40 H23         18.4760     0.3780     1.0540 h1         1 UNK       0.051700
     41 O6          18.4900    -1.4900    -0.1100 oh         1 UNK      -0.617300
     42 H24         18.4320    -1.8730     0.7760 ho         1 UNK       0.420000
     43 C13         20.0200     0.0000     0.0000 c3         1 UNK      -0.073900
     44 H25         20.0200    -0.3580     1.0610 hc         1 UNK       0.059200
     45 H26         20.0250     1.1060    -0.0670 hc         1 UNK       0.059200
     46 C14         21.5600     0.0000     0.0000 c3         1 UNK       0.144100
     47 H27         21.6380     0.2870     1.0710 h1         1 UNK       0.030700
     48 O7          21.4460    -1.5190    -0.1270 oh         1 UNK      -0.610800
     49 H28         21.3880    -1.8810     0.7720 ho         1 UNK       0.401500
     50 C15         23.1000     0.0000     0.0000 c3         1 UNK      -0.118900
     51 H29         23.2420    -1.0870     0.1010 hc         1 UNK       0.064450
     52 H30         23.0890     0.3250    -1.0560 hc         1 UNK       0.064450
     53 C16          0.0000     0.0000     0.0000 c3         1 UNK      -0.096100
     54 H31         -0.3620     1.0230     0.1510 hc         1 UNK       0.032533
     55 H32         -0.4170    -0.3810    -0.9410 hc         1 UNK       0.032533
     56 H33         -0.4090    -0.5980     0.8240 hc         1 UNK       0.032533
     57 C17         24.6400     0.0000     0.0000 c3         1 UNK      -0.096100
     58 H34         25.0020     1.0230     0.1510 hc         1 UNK       0.032533
     59 H35         25.0570    -0.3810    -0.9410 hc         1 UNK       0.032533
     60 H36         25.0490    -0.5980     0.8240 hc         1 UNK       0.032533
@<TRIPOS>BOND
     1     1     2 1   
     2     1     3 1   
     3     1     4 1   
     4     1    53 1   
     5     4     5 1   
     6     4     6 1   
     7     4     8 1   
     8     6     7 1   
     9     8     9 1   
    10     8    10 1   
    11     8    11 1   
    12    11    12 1   
    13    11    13 1   
    14    11    15 1   
    15    13    14 1   
    16    15    16 1   
    17    15    17 1   
    18    15    18 1   
    19    18    19 1   
    20    18    20 1   
    21    18    22 1   
    22    20    21 1   
    23    22    23 1   
    24    22    24 1   
    25    22    25 1   
    26    25    26 1   
    27    25    27 1   
    28    25    29 1   
    29    27    28 1   
    30    29    30 1   
    31    29    31 1   
    32    29    32 1   
    33    32    33 1   
    34    32    34 1   
    35    32    36 1   
    36    34    35 1   
    37    36    37 1   
    38    36    38 1   
    39    36    39 1   
    40    39    40 1   
    41    39    41 1   
    42    39    43 1   
    43    41    42 1   
    44    43    44 1   
    45    43    45 1   
    46    43    46 1   
    47    46    47 1   
    48    46    48 1   
    49    46    50 1   
    50    48    49 1   
    51    50    51 1   
    52    50    52 1   
    53    50    57 1   
    54    53    54 1   
    55    53    55 1   
    56    53    56 1   
    57    57    58 1   
    58    57    59 1   
    59    57    60 1   
@<TRIPOS>SUBSTRUCTURE
     1 UNK         1 TEMP              0 ****  ****    0 ROOT
